# File generated by Flopy version 3.3.2 on 02/04/2021 at 14:45:11.
BEGIN options
  BUDGET  FILEOUT  Ejericio_1.cbb
  HEAD  FILEOUT  Ejericio_1.hds
END options

BEGIN period  1
  SAVE  HEAD  ALL
  SAVE  BUDGET  ALL
  PRINT  HEAD  LAST
END period  1

