# File generated by Flopy version 3.3.2 on 02/03/2021 at 20:27:31.
BEGIN options
  TIME_UNITS  days
END options

BEGIN dimensions
  NPER  1
END dimensions

BEGIN perioddata
       1.00000000  1       1.00000000
END perioddata

