# File generated by Flopy version 3.3.2 on 02/03/2021 at 20:27:31.
BEGIN options
  COMPLEXITY  simple
END options

