# File generated by Flopy version 3.3.2 on 02/03/2021 at 20:25:42.
BEGIN options
  COMPLEXITY  simple
END options

