# File generated by Flopy version 3.3.2 on 02/03/2021 at 20:25:42.
BEGIN options
END options

BEGIN packages
  DIS6  Ejericio_1.dis  dis
  IC6  Ejericio_1.ic  ic
  NPF6  Ejericio_1.npf  npf
  CHD6  Ejericio_1.chd  chd_0
  OC6  Ejericio_1.oc  oc
END packages

