# File generated by Flopy version 3.3.2 on 02/03/2021 at 20:27:31.
BEGIN options
END options

BEGIN timing
  TDIS6  Ejericio_1.tdis
END timing

BEGIN models
  gwf6  Ejericio_1.nam  Ejericio_1
END models

BEGIN exchanges
END exchanges

BEGIN solutiongroup  1
  ims6  Ejericio_1.ims  Ejericio_1
END solutiongroup  1

